10
pbc=[T, T, T] comment= Properties=species:S:1:pos:R:3
C        13.21926582     -12.01275943      -8.58321970
H        12.54567782     -12.85208643      -8.85262670
H        12.78849182     -11.05959143      -8.95291470
H        13.32876682     -11.96588143      -7.48023170
H        14.21412682     -12.17347843      -9.04710570
C         9.04183730     -12.31573716      13.22945459
H         8.36824930     -13.15506416      12.96004759
H         8.61106330     -11.36256916      12.85975959
H         9.15133830     -12.26885916      14.33244259
H        10.03669830     -12.47645616      12.76556859
