14

C     -1.9436231500    0.0789638149    0.4136740755
C     -0.4607265556   -0.2556714467    0.4006128069
H     -2.2031727850    0.6762224850    1.2935580259
H     -2.2262110107    0.6434341526   -0.4806093752
H     -2.5392750754   -0.8388669281    0.4383778012
C      0.3972874000    1.0072485740    0.3661253753
H     -0.2175252833   -0.8472214041    1.2909207469
H     -0.2404345661   -0.8798204970   -0.4732563400
H      0.1770026158    1.6313957279    1.2400035257
C      1.8802039280    0.6726138230    0.3530673849
H      0.1540962287    1.5987923724   -0.5241762883
H      2.1627779651    0.1081400219    1.2473548736
H      2.1397406454    0.0753498304   -0.5268202045
H      2.4758439220    1.5904408993    0.3283662969
