10
Properties=species:S:1:pos:R:3 pbc="F F F"
C        1.21001400      -0.35359800       0.00000000
C        0.00000000       0.57595100       0.00000000
N       -1.30535100      -0.08747800       0.00000000
H        2.14931000       0.20849800       0.00000000
H        1.20179600      -0.99776000       0.88490900
H        1.20179600      -0.99776000      -0.88490900
H        0.03456100       1.23096300      -0.87647800
H        0.03456100       1.23096300       0.87647800
H       -1.37232600      -0.69834000       0.81313200
H       -1.37232600      -0.69834000      -0.81313200
