38
pbc=[T, T, T] comment= Properties=species:S:1:pos:R:3
C         4.84808767     -26.81704309     -22.90965020
C         6.32131767     -26.95494309     -22.75776020
C         7.01174767     -28.03523309     -23.40798020
C         8.48496767     -28.17313309     -23.25609020
H         4.54977767     -25.77812309     -22.73776020
H         4.33789767     -27.44670309     -22.17518020
H         4.51429767     -27.10077309     -23.91236020
H         6.83895767     -26.35862309     -22.01507020
H         6.49409767     -28.63154309     -24.15067020
H         8.81875767     -27.88939309     -22.25337020
H         8.99515767     -27.54346309     -23.99056020
H         8.78327767     -29.21204309     -23.42798020
C       -15.55761876       7.39528273     -14.14473446
H       -14.46541876       7.39528273     -14.14473446
H       -15.92167876       7.80723273     -15.08847446
H       -15.92168876       8.00661273     -13.31610446
H       -15.92168876       6.37200273     -14.02962446
H        13.28073571       2.08895559     -19.45054054
H        13.98873571       2.08895559     -19.45054054
C        16.59659528     -11.72163051      11.17701852
H        17.68879528     -11.72163051      11.17701852
H        16.23253528     -12.72014051      11.42865852
H        16.23252528     -11.44029051      10.18645852
H        16.23252528     -11.00444051      11.91593852
C       -23.80677741      15.49713476       5.14560911
C       -22.28688741      15.49423476       5.15891911
C       -21.74372741      15.19072476       6.55363911
C       -20.22383741      15.18782476       6.56694911
H       -24.17693741      15.71615476       4.13912911
H       -24.20269741      16.25698476       5.82673911
H       -24.20269741      14.52294476       5.44938911
H       -21.92133741      16.47080476       4.82083911
H       -21.92133741      14.74647476       4.44559911
H       -22.10927741      14.21415476       6.89171911
H       -22.10927741      15.93848476       7.26695911
H       -19.82791741      14.42797476       5.88581911
H       -19.85367741      14.96879476       7.57342911
H       -19.82791741      16.16200476       6.26316911
